[submodule "extern/googletest"]
	path = extern/googletest
	url = https://github.com/google/googletest.git
[submodule "extern/compute/SCALE-Sim"]
	path = extern/compute/SCALE-Sim
	url = https://github.com/scalesim-project/scale-sim-v2.git
[submodule "extern/network_backend/analytical"]
	path = extern/network_backend/analytical
	url = https://github.com/astra-sim/astra-network-analytical.git
[submodule "extern/network_backend/garnet/gem5_astra"]
	path = extern/network_backend/garnet/gem5_astra
	url = https://github.com/astra-sim/astra-network-garnet.git
