[submodule "extern/googletest"]
	path = extern/googletest
	url = https://github.com/google/googletest.git
[submodule "extern/compute/SCALE-Sim"]
	path = extern/compute/SCALE-Sim
	url = https://github.com/ARM-software/SCALE-Sim.git
[submodule "extern/network_backend/analytical"]
	path = extern/network_backend/analytical
	url = https://github.com/astra-sim/analytical.git
